
**** 10/01/14 23:45:55 ****** PSpice Lite (October 2012) ****** ID# 10813 ****

 ** Profile: "SCHEMATIC1-bias"  [ C:\Users\Alihan\Desktop\ITU COURSES\EHB311el - Ele Lab\raporlar alihan polat\deney 4\pspice\deney4-


 ****     CIRCUIT DESCRIPTION


******************************************************************************




** Creating circuit file "bias.cir" 
** WARNING: THIS AUTOMATICALLY GENERATED FILE MAY BE OVERWRITTEN BY SUBSEQUENT SIMULATIONS

*Libraries: 
* Profile Libraries :
* Local Libraries :
* From [PSPICE NETLIST] section of C:\Users\Alihan\AppData\Roaming\SPB_16.6\cdssetup\OrCAD_PSpice/16.6.0/PSpice.ini file:
.lib "nomd.lib" 

*Analysis directives: 
.TRAN  0 5ms 0 
.OPTIONS ADVCONV
.PROBE64 V(*) I(*) W(*) D(*) NOISE(*) 
.INC "..\SCHEMATIC1.net" 



**** INCLUDING SCHEMATIC1.net ****
* source DENEY4
E_U1         VOUT 0 VALUE {LIMIT(V(N00929,N00548)*1E6,-15V,+15V)}
R_R1         N00788 N01551  10k TC=0,0 
R_R4         N00929 0  10k TC=0,0 
R_R5         N00548 VOUT  100k TC=0,0 
C_C1         N01551 N00548  10n  TC=0,0 
V_V2         N00788 0  
+PULSE 1V -1V 0 0 0 0.5m 1m

**** RESUMING bias.cir ****
.END

**** 10/01/14 23:45:55 ****** PSpice Lite (October 2012) ****** ID# 10813 ****

 ** Profile: "SCHEMATIC1-bias"  [ C:\Users\Alihan\Desktop\ITU COURSES\EHB311el - Ele Lab\raporlar alihan polat\deney 4\pspice\deney4-


 ****     INITIAL TRANSIENT SOLUTION       TEMPERATURE =   27.000 DEG C


******************************************************************************



 NODE   VOLTAGE     NODE   VOLTAGE     NODE   VOLTAGE     NODE   VOLTAGE


( VOUT)    0.0000  (N00548)    0.0000 (N00788)    1.0000 (N00929)    0.0000     

(N01551)    1.0000 




    VOLTAGE SOURCE CURRENTS
    NAME         CURRENT

    V_V2         0.000E+00

    TOTAL POWER DISSIPATION   0.00E+00  WATTS

Reducing minimum delta to make the circuit converge.
Reducing minimum delta to make the circuit converge.
Reducing minimum delta to make the circuit converge.
Reducing minimum delta to make the circuit converge.

ERROR(ORPSIM-15138): Convergence problem in transient analysis at Time =  604.5E-06.
         Time step =  135.3E-21, minimum allowable step size =  1.000E-18

  These voltages failed to converge:

    V(N00548)                 =   -2.512mV  \   226.22uV
    V(N01551)                 =  -502.47mV  \  -499.73mV

  These supply currents failed to converge:

    I(V_V2)                   =  -150.25uA  \  -149.97uA

  These devices failed to converge:
    E_U1      



  Last node voltages tried were:

 NODE   VOLTAGE     NODE   VOLTAGE     NODE   VOLTAGE     NODE   VOLTAGE


( VOUT)  -15.0000  (N00548)    -.0025 (N00788)    1.0000 (N00929)    0.0000     

(N01551)    -.5025 


**** Interrupt ****
